ID CAPS generated Problem FOR MYSTRAN
SOL 3
OUTPUT4 EIGEN_VAL, EIGEN_VEC, GEN_MASS, , // -1/21 $
CEND

DISP = ALL
SPC = 3
METHOD = 1

BEGIN BULK
EIGRL          1 0.00000 150.000       9                            MASS
SPCADD         3       1       2
$
SPC1           1  123456    1317
SPC1           1  123456    1318
SPC1           1  123456    1323
SPC1           1  123456    1324
SPC1           1  123456    1325
SPC1           1  123456    1326
SPC1           1  123456    1327
SPC1           1  123456    1328
SPC1           2     123    1029
SPC1           2     123    1030
SPC1           2     123    1031
SPC1           2     123    1038
SPC1           2     123    1039
SPC1           2     123    1040
SPC1           2     123    1077
SPC1           2     123    1078
SPC1           2     123    1079
SPC1           2     123    1084
SPC1           2     123    1087
SPC1           2     123    1088
$ ... 36 like lines cut
MAT1           1 6.9E+10 2.7E+10 0.30000 4050.00 0.00000 0.00000 0.00000
MAT1           2 6.90E+7 2.65E+7 0.30000 4.05000 0.00000 0.00000 0.00000
PSHELL         3       1 5.08E-2       1 1.00000       1 0.83333
PSHELL       236       1 5.08E-2       1 1.00000       1 0.83333
PSHELL         2       1 5.08E-2       1 1.00000       1 0.83333
PSHELL         4       1 2.54E-3       1 1.00000       1 0.83333
PSHELL         6       1 2.54E-3       1 1.00000       1 0.83333
PSHELL         8       1 2.54E-3       1 1.00000       1 0.83333
PSHELL         9       1 2.54E-3       1 1.00000       1 0.83333
PSHELL        11       1 2.54E-3       1 1.00000       1 0.83333
PSHELL        12       1 2.54E-3       1 1.00000       1 0.83333
PSHELL        14       1 2.54E-3       1 1.00000       1 0.83333
PSHELL        15       1 2.54E-3       1 1.00000       1 0.83333
PSHELL        17       1 2.54E-3       1 1.00000       1 0.83333
PSHELL        18       1 2.54E-3       1 1.00000       1 0.83333
PSHELL        20       1 2.54E-3       1 1.00000       1 0.83333
PSHELL        21       1 2.54E-3       1 1.00000       1 0.83333
PSHELL        23       1 2.54E-3       1 1.00000       1 0.83333
PSHELL        24       1 2.54E-3       1 1.00000       1 0.83333
PSHELL        25       1 2.54E-3       1 1.00000       1 0.83333
PSHELL        35       1 2.54E-3       1 1.00000       1 0.83333
PSHELL        36       1 2.54E-3       1 1.00000       1 0.83333
$ ... 265 like lines cut
INCLUDE 'aeroelastic.bdf'
ENDDATA
