ID CAPS generated Problem FOR MYSTRAN
SOL 3
OUTPUT4 EIGEN_VAL, EIGEN_VEC, GEN_MASS, , // -1/21 $
CEND

DISP = ALL
SPC = 2
METHOD = 1

BEGIN BULK
EIGRL          1 0.00000 200.000       4                            MASS
SPCADD         2       1
$
SPC1           1  123456      50
SPC1           1  123456      51
SPC1           1  123456      52
SPC1           1  123456      53
SPC1           1  123456      54
SPC1           1  123456      55
SPC1           1  123456      56
SPC1           1  123456      57
SPC1           1  123456      58
SPC1           1  123456      59
SPC1           1  123456      60
SPC1           1  123456      61
SPC1           1  123456      62
SPC1           1  123456      63
SPC1           1  123456      64
SPC1           1  123456      65
SPC1           1  123456      66
SPC1           1  123456      67
SPC1           1  123456      68
SPC1           1  123456      69
$ ... 48 like lines cut
MAT1           1 5.34E+8 8.31E+7 0.31000 147.000 0.00000 0.00000 0.00000
PSHELL         1       1 1.65E-2       1 1.00000       1 0.83333
PSHELL         2       1 5.00E-5       1 1.00000       1 0.83333
INCLUDE 'aeroelastic.bdf'
ENDDATA
